<?xml version="1.0" encoding="UTF-8"?>
<!-- Pune Urban Road Type Definitions -->
<types xmlns:xsi="http://www.w3.org/2001/XMLSchema-instance" xsi:noNamespaceSchemaLocation="http://sumo.dlr.de/xsd/types_file.xsd">
    <type id="urban_pune" numLanes="2" speed="13.89" priority="5"/>
</types>
