<?xml version="1.0" encoding="UTF-8"?>
<!-- Pune Mixed Traffic Vehicle Type and Route Definitions -->
<routes xmlns:xsi="http://www.w3.org/2001/XMLSchema-instance" xsi:noNamespaceSchemaLocation="http://sumo.dlr.de/xsd/routes_file.xsd">
    <!-- Vehicle Type Definitions for Indian Mixed Traffic -->
    <vType id="two_wheeler" length="2.0" maxSpeed="13.89" accel="2.5" decel="4.5" sigma="0.6" color="255,165,0" vClass="motorcycle"/>
    <vType id="auto_rickshaw" length="3.5" maxSpeed="11.11" accel="1.8" decel="3.5" sigma="0.5" color="255,255,0" vClass="taxi"/>
    <vType id="car" length="4.5" maxSpeed="13.89" accel="2.0" decel="4.0" sigma="0.4" color="0,128,255" vClass="passenger"/>
    <vType id="pedestrian_group" length="1.0" maxSpeed="1.4" accel="0.5" decel="1.0" sigma="0.3" color="0,255,0" vClass="pedestrian"/>
    
    <!-- Route Definitions for 3x3 Grid - All 12 Directional Paths -->
    
    <!-- NS Routes (North-South) -->
    <route id="route_n00_n20" edges="e_n00_n10 e_n10_n20"/>
    <route id="route_n20_n00" edges="e_n20_n10 e_n10_n00"/>
    <route id="route_n01_n21" edges="e_n01_n11 e_n11_n21"/>
    <route id="route_n21_n01" edges="e_n21_n11 e_n11_n01"/>
    <route id="route_n02_n22" edges="e_n02_n12 e_n12_n22"/>
    <route id="route_n22_n02" edges="e_n22_n12 e_n12_n02"/>
    
    <!-- EW Routes (East-West) -->
    <route id="route_n00_n02" edges="e_n00_n01 e_n01_n02"/>
    <route id="route_n02_n00" edges="e_n02_n01 e_n01_n00"/>
    <route id="route_n10_n12" edges="e_n10_n11 e_n11_n12"/>
    <route id="route_n12_n10" edges="e_n12_n11 e_n11_n10"/>
    <route id="route_n20_n22" edges="e_n20_n21 e_n21_n22"/>
    <route id="route_n22_n20" edges="e_n22_n21 e_n21_n20"/>
    
    <!-- Right Turn Routes (20% of traffic) -->
    <route id="route_rt_n20_n10_n11" edges="e_n20_n10 e_n10_n11"/>
    <route id="route_rt_n21_n11_n12" edges="e_n21_n11 e_n11_n12"/>
    <route id="route_rt_n00_n01_n11" edges="e_n00_n01 e_n01_n11"/>
    <route id="route_rt_n10_n11_n21" edges="e_n10_n11 e_n11_n21"/>
    <route id="route_rt_n02_n01_n00" edges="e_n02_n01 e_n01_n00"/>
    <route id="route_rt_n12_n11_n10" edges="e_n12_n11 e_n11_n10"/>
    <route id="route_rt_n22_n21_n20" edges="e_n22_n21 e_n21_n20"/>
    <route id="route_rt_n22_n12_n11" edges="e_n22_n12 e_n12_n11"/>
    
    <!-- Left Turn Routes (10% of traffic) -->
    <route id="route_lt_n20_n10_n00" edges="e_n20_n10 e_n10_n00"/>
    <route id="route_lt_n00_n10_n20" edges="e_n00_n10 e_n10_n20"/>
    <route id="route_lt_n02_n12_n22" edges="e_n02_n12 e_n12_n22"/>
    <route id="route_lt_n22_n12_n02" edges="e_n22_n12 e_n12_n02"/>
    
    <!-- U-turn Routes (Two-wheelers only, 5% of traffic) -->
    <route id="route_uturn_n01_ew" edges="e_n00_n01 e_n01_n00"/>
    <route id="route_uturn_n10_ns" edges="e_n00_n10 e_n10_n00"/>
    <route id="route_uturn_n11_ew" edges="e_n10_n11 e_n11_n10"/>
    <route id="route_uturn_n11_ns" edges="e_n01_n11 e_n11_n01"/>
    <route id="route_uturn_n12_ns" edges="e_n02_n12 e_n12_n02"/>
    <route id="route_uturn_n21_ew" edges="e_n20_n21 e_n21_n20"/>
    
    <!-- Note: Vehicle generation handled programmatically by env_sumo.py _inject_vehicles() method -->
    <!-- XML flows removed to avoid conflicts with programmatic injection -->
</routes>
