<?xml version="1.0" encoding="UTF-8"?>

<!-- generated on 2026-03-11 21:10:59 by Eclipse SUMO netconvert Version 1.24.0
<netconvertConfiguration xmlns:xsi="http://www.w3.org/2001/XMLSchema-instance" xsi:noNamespaceSchemaLocation="http://sumo.dlr.de/xsd/netconvertConfiguration.xsd">

    <input>
        <node-files value="sumo_config/pune_network.nod.xml"/>
        <edge-files value="sumo_config/pune_network.edg.xml"/>
        <type-files value="sumo_config/pune_network.typ.xml"/>
    </input>

    <output>
        <output-file value="sumo_config/pune_network.net.xml"/>
    </output>

    <building_defaults>
        <default.junctions.keep-clear value="true"/>
    </building_defaults>

    <tls_building>
        <tls.green.time value="25"/>
        <tls.yellow.time value="3"/>
        <tls.red.time value="2"/>
        <tls.default-type value="static"/>
    </tls_building>

    <junctions>
        <no-turnarounds value="false"/>
        <junctions.corner-detail value="5"/>
        <junctions.internal-link-detail value="10"/>
        <junctions.limit-turn-speed value="9.0"/>
    </junctions>

    <pedestrian>
        <crossings.guess value="false"/>
        <walkingareas value="true"/>
    </pedestrian>

    <report>
        <verbose value="true"/>
        <print-options value="false"/>
    </report>

</netconvertConfiguration>
-->

<net version="1.20" junctionCornerDetail="5" junctionLinkDetail="10" walkingareas="true" limitTurnSpeed="9.00" xmlns:xsi="http://www.w3.org/2001/XMLSchema-instance" xsi:noNamespaceSchemaLocation="http://sumo.dlr.de/xsd/net_file.xsd">

    <location netOffset="0.00,0.00" convBoundary="0.00,0.00,400.00,400.00" origBoundary="0.00,0.00,400.00,400.00" projParameter="!"/>

    <type id="urban_pune" priority="5" numLanes="2" speed="13.89"/>

    <edge id=":n00_0" function="internal">
        <lane id=":n00_0_0" index="0" speed="11.49" length="18.16" shape="-4.80,6.40 -4.66,4.05 -4.25,1.98 -3.56,0.18 -2.59,-1.34 -1.34,-2.59 0.18,-3.56 1.98,-4.25 4.05,-4.66 6.40,-4.80"/>
        <lane id=":n00_0_1" index="1" speed="9.82" length="12.97" shape="-1.60,6.40 -1.50,4.72 -1.20,3.24 -0.71,1.96 -0.02,0.87 0.87,-0.02 1.96,-0.71 3.24,-1.20 4.72,-1.50 6.40,-1.60"/>
    </edge>
    <edge id=":n00_2" function="internal">
        <lane id=":n00_2_0" index="0" speed="5.00" length="2.59" shape="6.40,4.80 6.06,4.82 5.77,4.88 5.51,4.98 5.29,5.12 5.12,5.29 4.98,5.51 4.88,5.77 4.82,6.06 4.80,6.40"/>
        <lane id=":n00_2_1" index="1" speed="7.79" length="7.78" shape="6.40,1.60 5.39,1.66 4.50,1.84 3.73,2.13 3.08,2.55 2.55,3.08 2.13,3.73 1.84,4.50 1.66,5.39 1.60,6.40"/>
    </edge>
    <edge id=":n00_w0" function="walkingarea">
        <lane id=":n00_w0_0" index="0" allow="pedestrian" speed="2.78" length="9.99" width="12.80" shape="-6.40,6.40 6.40,6.40 6.40,-6.40 2.49,-6.04 -0.71,-4.98 -3.20,-3.20 -4.98,-0.71 -6.04,2.49"/>
    </edge>
    <edge id=":n01_0" function="internal">
        <lane id=":n01_0_0" index="0" speed="8.34" length="9.08" shape="195.20,10.40 195.13,9.22 194.92,8.19 194.58,7.29 194.09,6.53 193.47,5.91 192.71,5.42 191.81,5.08 190.78,4.87 189.60,4.80"/>
        <lane id=":n01_0_1" index="1" speed="10.26" length="14.27" shape="198.40,10.40 198.29,8.55 197.97,6.92 197.42,5.51 196.66,4.32 195.68,3.34 194.49,2.58 193.08,2.03 191.45,1.71 189.60,1.60"/>
    </edge>
    <edge id=":n01_2" function="internal">
        <lane id=":n01_2_0" index="0" speed="11.87" length="19.45" shape="198.40,10.40 198.55,7.88 198.99,5.66 199.73,3.73 200.77,2.10 202.10,0.77 203.73,-0.27 205.66,-1.01 207.88,-1.45 210.40,-1.60"/>
    </edge>
    <edge id=":n01_3" function="internal">
        <lane id=":n01_3_0" index="0" speed="4.69" length="2.36" shape="198.40,10.40 198.76,9.77 199.11,9.29 199.47,8.98 199.82,8.82 200.00,8.82"/>
    </edge>
    <edge id=":n01_12" function="internal">
        <lane id=":n01_12_0" index="0" speed="4.69" length="2.36" shape="200.00,8.82 200.18,8.82 200.53,8.98 200.89,9.29 201.24,9.77 201.60,10.40"/>
    </edge>
    <edge id=":n01_4" function="internal">
        <lane id=":n01_4_0" index="0" speed="8.34" length="9.08" shape="210.40,4.80 209.22,4.87 208.19,5.08 207.29,5.42 206.53,5.91 205.91,6.53 205.42,7.29 205.08,8.19 204.87,9.22 204.80,10.40"/>
    </edge>
    <edge id=":n01_5" function="internal">
        <lane id=":n01_5_0" index="0" speed="13.89" length="20.80" shape="210.40,4.80 189.60,4.80"/>
        <lane id=":n01_5_1" index="1" speed="13.89" length="20.80" shape="210.40,1.60 189.60,1.60"/>
    </edge>
    <edge id=":n01_7" function="internal">
        <lane id=":n01_7_0" index="0" speed="4.69" length="1.32" shape="210.40,1.60 209.77,1.24 209.29,0.89"/>
    </edge>
    <edge id=":n01_13" function="internal">
        <lane id=":n01_13_0" index="0" speed="4.69" length="3.40" shape="209.29,0.89 208.98,0.53 208.82,0.18 208.82,-0.18 208.98,-0.53 209.29,-0.89 209.77,-1.24 210.40,-1.60"/>
    </edge>
    <edge id=":n01_8" function="internal">
        <lane id=":n01_8_0" index="0" speed="13.89" length="20.80" shape="189.60,-4.80 210.40,-4.80"/>
        <lane id=":n01_8_1" index="1" speed="13.89" length="20.80" shape="189.60,-1.60 210.40,-1.60"/>
    </edge>
    <edge id=":n01_10" function="internal">
        <lane id=":n01_10_0" index="0" speed="11.87" length="4.98" shape="189.60,-1.60 192.12,-1.45 194.34,-1.01 194.52,-0.94"/>
    </edge>
    <edge id=":n01_11" function="internal">
        <lane id=":n01_11_0" index="0" speed="4.69" length="1.32" shape="189.60,-1.60 190.23,-1.24 190.71,-0.89"/>
    </edge>
    <edge id=":n01_14" function="internal">
        <lane id=":n01_14_0" index="0" speed="11.87" length="14.48" shape="194.52,-0.94 196.27,-0.27 197.90,0.77 199.23,2.10 200.27,3.73 201.01,5.66 201.45,7.88 201.60,10.40"/>
    </edge>
    <edge id=":n01_15" function="internal">
        <lane id=":n01_15_0" index="0" speed="4.69" length="3.40" shape="190.71,-0.89 191.02,-0.53 191.18,-0.18 191.18,0.18 191.02,0.53 190.71,0.89 190.23,1.24 189.60,1.60"/>
    </edge>
    <edge id=":n01_w0" function="walkingarea">
        <lane id=":n01_w0_0" index="0" allow="pedestrian" speed="2.78" length="15.99" width="12.80" shape="193.60,10.40 206.40,10.40 206.84,8.18 207.40,7.40 208.18,6.84 209.18,6.51 210.40,6.40 210.40,-6.40 189.60,-6.40 189.60,6.40 191.82,6.84 192.60,7.40 193.16,8.18 193.49,9.18"/>
    </edge>
    <edge id=":n02_0" function="internal">
        <lane id=":n02_0_0" index="0" speed="5.00" length="2.59" shape="395.20,6.40 395.18,6.06 395.12,5.77 395.02,5.51 394.88,5.29 394.71,5.12 394.49,4.98 394.23,4.88 393.94,4.82 393.60,4.80"/>
        <lane id=":n02_0_1" index="1" speed="7.79" length="7.78" shape="398.40,6.40 398.34,5.39 398.16,4.50 397.87,3.73 397.45,3.08 396.92,2.55 396.27,2.13 395.50,1.84 394.61,1.66 393.60,1.60"/>
    </edge>
    <edge id=":n02_2" function="internal">
        <lane id=":n02_2_0" index="0" speed="11.49" length="18.16" shape="393.60,-4.80 395.95,-4.66 398.02,-4.25 399.82,-3.56 401.34,-2.59 402.59,-1.34 403.56,0.18 404.25,1.98 404.66,4.05 404.80,6.40"/>
        <lane id=":n02_2_1" index="1" speed="9.82" length="12.97" shape="393.60,-1.60 395.28,-1.50 396.76,-1.20 398.04,-0.71 399.13,-0.02 400.02,0.87 400.71,1.96 401.20,3.24 401.50,4.72 401.60,6.40"/>
    </edge>
    <edge id=":n02_w0" function="walkingarea">
        <lane id=":n02_w0_0" index="0" allow="pedestrian" speed="2.78" length="9.99" width="12.80" shape="393.60,6.40 406.40,6.40 406.04,2.49 404.98,-0.71 403.20,-3.20 400.71,-4.98 397.51,-6.04 393.60,-6.40 393.60,6.40"/>
    </edge>
    <edge id=":n10_0" function="internal">
        <lane id=":n10_0_0" index="0" speed="13.89" length="20.80" shape="-4.80,210.40 -4.80,189.60"/>
        <lane id=":n10_0_1" index="1" speed="13.89" length="20.80" shape="-1.60,210.40 -1.60,189.60"/>
    </edge>
    <edge id=":n10_2" function="internal">
        <lane id=":n10_2_0" index="0" speed="11.87" length="4.98" shape="-1.60,210.40 -1.45,207.88 -1.01,205.66 -0.94,205.48"/>
    </edge>
    <edge id=":n10_3" function="internal">
        <lane id=":n10_3_0" index="0" speed="4.69" length="1.32" shape="-1.60,210.40 -1.24,209.77 -0.89,209.29"/>
    </edge>
    <edge id=":n10_12" function="internal">
        <lane id=":n10_12_0" index="0" speed="11.87" length="14.48" shape="-0.94,205.48 -0.27,203.73 0.77,202.10 2.10,200.77 3.73,199.73 5.66,198.99 7.88,198.55 10.40,198.40"/>
    </edge>
    <edge id=":n10_13" function="internal">
        <lane id=":n10_13_0" index="0" speed="4.69" length="3.40" shape="-0.89,209.29 -0.53,208.98 -0.18,208.82 0.18,208.82 0.53,208.98 0.89,209.29 1.24,209.77 1.60,210.40"/>
    </edge>
    <edge id=":n10_4" function="internal">
        <lane id=":n10_4_0" index="0" speed="8.34" length="9.08" shape="10.40,204.80 9.22,204.87 8.19,205.08 7.29,205.42 6.53,205.91 5.91,206.53 5.42,207.29 5.08,208.19 4.87,209.22 4.80,210.40"/>
        <lane id=":n10_4_1" index="1" speed="10.26" length="14.27" shape="10.40,201.60 8.55,201.71 6.92,202.03 5.51,202.58 4.32,203.34 3.34,204.32 2.58,205.51 2.03,206.92 1.71,208.55 1.60,210.40"/>
    </edge>
    <edge id=":n10_6" function="internal">
        <lane id=":n10_6_0" index="0" speed="11.87" length="19.45" shape="10.40,201.60 7.88,201.45 5.66,201.01 3.73,200.27 2.10,199.23 0.77,197.90 -0.27,196.27 -1.01,194.34 -1.45,192.12 -1.60,189.60"/>
    </edge>
    <edge id=":n10_7" function="internal">
        <lane id=":n10_7_0" index="0" speed="4.69" length="2.36" shape="10.40,201.60 9.77,201.24 9.29,200.89 8.98,200.53 8.82,200.18 8.82,200.00"/>
    </edge>
    <edge id=":n10_14" function="internal">
        <lane id=":n10_14_0" index="0" speed="4.69" length="2.36" shape="8.82,200.00 8.82,199.82 8.98,199.47 9.29,199.11 9.77,198.76 10.40,198.40"/>
    </edge>
    <edge id=":n10_8" function="internal">
        <lane id=":n10_8_0" index="0" speed="8.34" length="9.08" shape="4.80,189.60 4.87,190.78 5.08,191.81 5.42,192.71 5.91,193.47 6.53,194.09 7.29,194.58 8.19,194.92 9.22,195.13 10.40,195.20"/>
    </edge>
    <edge id=":n10_9" function="internal">
        <lane id=":n10_9_0" index="0" speed="13.89" length="20.80" shape="4.80,189.60 4.80,210.40"/>
        <lane id=":n10_9_1" index="1" speed="13.89" length="20.80" shape="1.60,189.60 1.60,210.40"/>
    </edge>
    <edge id=":n10_11" function="internal">
        <lane id=":n10_11_0" index="0" speed="4.69" length="1.32" shape="1.60,189.60 1.24,190.23 0.89,190.71"/>
    </edge>
    <edge id=":n10_15" function="internal">
        <lane id=":n10_15_0" index="0" speed="4.69" length="3.40" shape="0.89,190.71 0.53,191.02 0.18,191.18 -0.18,191.18 -0.53,191.02 -0.89,190.71 -1.24,190.23 -1.60,189.60"/>
    </edge>
    <edge id=":n10_w0" function="walkingarea">
        <lane id=":n10_w0_0" index="0" allow="pedestrian" speed="2.78" length="15.99" width="12.80" shape="-6.40,210.40 6.40,210.40 6.84,208.18 7.40,207.40 8.18,206.84 9.18,206.51 10.40,206.40 10.40,193.60 8.18,193.16 7.40,192.60 6.84,191.82 6.51,190.82 6.40,189.60 -6.40,189.60"/>
    </edge>
    <edge id=":n11_0" function="internal">
        <lane id=":n11_0_0" index="0" speed="8.34" length="9.08" shape="195.20,210.40 195.13,209.22 194.92,208.19 194.58,207.29 194.09,206.53 193.47,205.91 192.71,205.42 191.81,205.08 190.78,204.87 189.60,204.80"/>
    </edge>
    <edge id=":n11_1" function="internal">
        <lane id=":n11_1_0" index="0" speed="13.89" length="20.80" shape="195.20,210.40 195.20,189.60"/>
        <lane id=":n11_1_1" index="1" speed="13.89" length="20.80" shape="198.40,210.40 198.40,189.60"/>
    </edge>
    <edge id=":n11_3" function="internal">
        <lane id=":n11_3_0" index="0" speed="11.87" length="4.98" shape="198.40,210.40 198.55,207.88 198.99,205.66 199.06,205.48"/>
    </edge>
    <edge id=":n11_4" function="internal">
        <lane id=":n11_4_0" index="0" speed="4.69" length="1.32" shape="198.40,210.40 198.76,209.77 199.11,209.29"/>
    </edge>
    <edge id=":n11_20" function="internal">
        <lane id=":n11_20_0" index="0" speed="11.87" length="14.48" shape="199.06,205.48 199.73,203.73 200.77,202.10 202.10,200.77 203.73,199.73 205.66,198.99 207.88,198.55 210.40,198.40"/>
    </edge>
    <edge id=":n11_21" function="internal">
        <lane id=":n11_21_0" index="0" speed="4.69" length="3.40" shape="199.11,209.29 199.47,208.98 199.82,208.82 200.18,208.82 200.53,208.98 200.89,209.29 201.24,209.77 201.60,210.40"/>
    </edge>
    <edge id=":n11_5" function="internal">
        <lane id=":n11_5_0" index="0" speed="8.34" length="9.08" shape="210.40,204.80 209.22,204.87 208.19,205.08 207.29,205.42 206.53,205.91 205.91,206.53 205.42,207.29 205.08,208.19 204.87,209.22 204.80,210.40"/>
    </edge>
    <edge id=":n11_6" function="internal">
        <lane id=":n11_6_0" index="0" speed="13.89" length="20.80" shape="210.40,204.80 189.60,204.80"/>
        <lane id=":n11_6_1" index="1" speed="13.89" length="20.80" shape="210.40,201.60 189.60,201.60"/>
    </edge>
    <edge id=":n11_8" function="internal">
        <lane id=":n11_8_0" index="0" speed="11.87" length="4.98" shape="210.40,201.60 207.88,201.45 205.66,201.01 205.48,200.94"/>
    </edge>
    <edge id=":n11_9" function="internal">
        <lane id=":n11_9_0" index="0" speed="4.69" length="1.32" shape="210.40,201.60 209.77,201.24 209.29,200.89"/>
    </edge>
    <edge id=":n11_22" function="internal">
        <lane id=":n11_22_0" index="0" speed="11.87" length="14.48" shape="205.48,200.94 203.73,200.27 202.10,199.23 200.77,197.90 199.73,196.27 198.99,194.34 198.55,192.12 198.40,189.60"/>
    </edge>
    <edge id=":n11_23" function="internal">
        <lane id=":n11_23_0" index="0" speed="4.69" length="3.40" shape="209.29,200.89 208.98,200.53 208.82,200.18 208.82,199.82 208.98,199.47 209.29,199.11 209.77,198.76 210.40,198.40"/>
    </edge>
    <edge id=":n11_10" function="internal">
        <lane id=":n11_10_0" index="0" speed="8.34" length="9.08" shape="204.80,189.60 204.87,190.78 205.08,191.81 205.42,192.71 205.91,193.47 206.53,194.09 207.29,194.58 208.19,194.92 209.22,195.13 210.40,195.20"/>
    </edge>
    <edge id=":n11_11" function="internal">
        <lane id=":n11_11_0" index="0" speed="13.89" length="20.80" shape="204.80,189.60 204.80,210.40"/>
        <lane id=":n11_11_1" index="1" speed="13.89" length="20.80" shape="201.60,189.60 201.60,210.40"/>
    </edge>
    <edge id=":n11_13" function="internal">
        <lane id=":n11_13_0" index="0" speed="11.87" length="4.98" shape="201.60,189.60 201.45,192.12 201.01,194.34 200.94,194.52"/>
    </edge>
    <edge id=":n11_14" function="internal">
        <lane id=":n11_14_0" index="0" speed="4.69" length="1.32" shape="201.60,189.60 201.24,190.23 200.89,190.71"/>
    </edge>
    <edge id=":n11_24" function="internal">
        <lane id=":n11_24_0" index="0" speed="11.87" length="14.48" shape="200.94,194.52 200.27,196.27 199.23,197.90 197.90,199.23 196.27,200.27 194.34,201.01 192.12,201.45 189.60,201.60"/>
    </edge>
    <edge id=":n11_25" function="internal">
        <lane id=":n11_25_0" index="0" speed="4.69" length="3.40" shape="200.89,190.71 200.53,191.02 200.18,191.18 199.82,191.18 199.47,191.02 199.11,190.71 198.76,190.23 198.40,189.60"/>
    </edge>
    <edge id=":n11_15" function="internal">
        <lane id=":n11_15_0" index="0" speed="8.34" length="9.08" shape="189.60,195.20 190.78,195.13 191.81,194.92 192.71,194.58 193.47,194.09 194.09,193.47 194.58,192.71 194.92,191.81 195.13,190.78 195.20,189.60"/>
    </edge>
    <edge id=":n11_16" function="internal">
        <lane id=":n11_16_0" index="0" speed="13.89" length="20.80" shape="189.60,195.20 210.40,195.20"/>
        <lane id=":n11_16_1" index="1" speed="13.89" length="20.80" shape="189.60,198.40 210.40,198.40"/>
    </edge>
    <edge id=":n11_18" function="internal">
        <lane id=":n11_18_0" index="0" speed="11.87" length="4.98" shape="189.60,198.40 192.12,198.55 194.34,198.99 194.52,199.06"/>
    </edge>
    <edge id=":n11_19" function="internal">
        <lane id=":n11_19_0" index="0" speed="4.69" length="1.32" shape="189.60,198.40 190.23,198.76 190.71,199.11"/>
    </edge>
    <edge id=":n11_26" function="internal">
        <lane id=":n11_26_0" index="0" speed="11.87" length="14.48" shape="194.52,199.06 196.27,199.73 197.90,200.77 199.23,202.10 200.27,203.73 201.01,205.66 201.45,207.88 201.60,210.40"/>
    </edge>
    <edge id=":n11_27" function="internal">
        <lane id=":n11_27_0" index="0" speed="4.69" length="3.40" shape="190.71,199.11 191.02,199.47 191.18,199.82 191.18,200.18 191.02,200.53 190.71,200.89 190.23,201.24 189.60,201.60"/>
    </edge>
    <edge id=":n11_w0" function="walkingarea">
        <lane id=":n11_w0_0" index="0" allow="pedestrian" speed="2.78" length="16.45" width="12.80" shape="193.60,210.40 206.40,210.40 206.84,208.18 207.40,207.40 208.18,206.84 209.18,206.51 210.40,206.40 210.40,193.60 208.18,193.16 207.40,192.60 206.84,191.82 206.51,190.82 206.40,189.60 193.60,189.60 193.16,191.82 192.60,192.60 191.82,193.16 190.82,193.49 189.60,193.60 189.60,206.40 191.82,206.84 192.60,207.40 193.16,208.18 193.49,209.18"/>
    </edge>
    <edge id=":n12_0" function="internal">
        <lane id=":n12_0_0" index="0" speed="8.34" length="9.08" shape="395.20,210.40 395.13,209.22 394.92,208.19 394.58,207.29 394.09,206.53 393.47,205.91 392.71,205.42 391.81,205.08 390.78,204.87 389.60,204.80"/>
    </edge>
    <edge id=":n12_1" function="internal">
        <lane id=":n12_1_0" index="0" speed="13.89" length="20.80" shape="395.20,210.40 395.20,189.60"/>
        <lane id=":n12_1_1" index="1" speed="13.89" length="20.80" shape="398.40,210.40 398.40,189.60"/>
    </edge>
    <edge id=":n12_3" function="internal">
        <lane id=":n12_3_0" index="0" speed="4.69" length="1.32" shape="398.40,210.40 398.76,209.77 399.11,209.29"/>
    </edge>
    <edge id=":n12_12" function="internal">
        <lane id=":n12_12_0" index="0" speed="4.69" length="3.40" shape="399.11,209.29 399.47,208.98 399.82,208.82 400.18,208.82 400.53,208.98 400.89,209.29 401.24,209.77 401.60,210.40"/>
    </edge>
    <edge id=":n12_4" function="internal">
        <lane id=":n12_4_0" index="0" speed="13.89" length="20.80" shape="404.80,189.60 404.80,210.40"/>
        <lane id=":n12_4_1" index="1" speed="13.89" length="20.80" shape="401.60,189.60 401.60,210.40"/>
    </edge>
    <edge id=":n12_6" function="internal">
        <lane id=":n12_6_0" index="0" speed="11.87" length="4.98" shape="401.60,189.60 401.45,192.12 401.01,194.34 400.94,194.52"/>
    </edge>
    <edge id=":n12_7" function="internal">
        <lane id=":n12_7_0" index="0" speed="4.69" length="1.32" shape="401.60,189.60 401.24,190.23 400.89,190.71"/>
    </edge>
    <edge id=":n12_13" function="internal">
        <lane id=":n12_13_0" index="0" speed="11.87" length="14.48" shape="400.94,194.52 400.27,196.27 399.23,197.90 397.90,199.23 396.27,200.27 394.34,201.01 392.12,201.45 389.60,201.60"/>
    </edge>
    <edge id=":n12_14" function="internal">
        <lane id=":n12_14_0" index="0" speed="4.69" length="3.40" shape="400.89,190.71 400.53,191.02 400.18,191.18 399.82,191.18 399.47,191.02 399.11,190.71 398.76,190.23 398.40,189.60"/>
    </edge>
    <edge id=":n12_8" function="internal">
        <lane id=":n12_8_0" index="0" speed="8.34" length="9.08" shape="389.60,195.20 390.78,195.13 391.81,194.92 392.71,194.58 393.47,194.09 394.09,193.47 394.58,192.71 394.92,191.81 395.13,190.78 395.20,189.60"/>
        <lane id=":n12_8_1" index="1" speed="10.26" length="14.27" shape="389.60,198.40 391.45,198.29 393.08,197.97 394.49,197.42 395.68,196.66 396.66,195.68 397.42,194.49 397.97,193.08 398.29,191.45 398.40,189.60"/>
    </edge>
    <edge id=":n12_10" function="internal">
        <lane id=":n12_10_0" index="0" speed="11.87" length="19.45" shape="389.60,198.40 392.12,198.55 394.34,198.99 396.27,199.73 397.90,200.77 399.23,202.10 400.27,203.73 401.01,205.66 401.45,207.88 401.60,210.40"/>
    </edge>
    <edge id=":n12_11" function="internal">
        <lane id=":n12_11_0" index="0" speed="4.69" length="2.36" shape="389.60,198.40 390.23,198.76 390.71,199.11 391.02,199.47 391.18,199.82 391.18,200.00"/>
    </edge>
    <edge id=":n12_15" function="internal">
        <lane id=":n12_15_0" index="0" speed="4.69" length="2.36" shape="391.18,200.00 391.18,200.18 391.02,200.53 390.71,200.89 390.23,201.24 389.60,201.60"/>
    </edge>
    <edge id=":n12_w0" function="walkingarea">
        <lane id=":n12_w0_0" index="0" allow="pedestrian" speed="2.78" length="15.99" width="12.80" shape="393.60,210.40 406.40,210.40 406.40,189.60 393.60,189.60 393.16,191.82 392.60,192.60 391.82,193.16 390.82,193.49 389.60,193.60 389.60,206.40 391.82,206.84 392.60,207.40 393.16,208.18 393.49,209.18"/>
    </edge>
    <edge id=":n20_0" function="internal">
        <lane id=":n20_0_0" index="0" speed="11.49" length="18.16" shape="6.40,404.80 4.05,404.66 1.98,404.25 0.18,403.56 -1.34,402.59 -2.59,401.34 -3.56,399.82 -4.25,398.02 -4.66,395.95 -4.80,393.60"/>
        <lane id=":n20_0_1" index="1" speed="9.82" length="12.97" shape="6.40,401.60 4.72,401.50 3.24,401.20 1.96,400.71 0.87,400.02 -0.02,399.13 -0.71,398.04 -1.20,396.76 -1.50,395.28 -1.60,393.60"/>
    </edge>
    <edge id=":n20_2" function="internal">
        <lane id=":n20_2_0" index="0" speed="5.00" length="2.59" shape="4.80,393.60 4.82,393.94 4.88,394.23 4.98,394.49 5.12,394.71 5.29,394.88 5.51,395.02 5.77,395.12 6.06,395.18 6.40,395.20"/>
        <lane id=":n20_2_1" index="1" speed="7.79" length="7.78" shape="1.60,393.60 1.66,394.61 1.84,395.50 2.13,396.27 2.55,396.92 3.08,397.45 3.73,397.87 4.50,398.16 5.39,398.34 6.40,398.40"/>
    </edge>
    <edge id=":n20_w0" function="walkingarea">
        <lane id=":n20_w0_0" index="0" allow="pedestrian" speed="2.78" length="9.99" width="12.80" shape="6.40,406.40 6.40,393.60 -6.40,393.60 -6.04,397.51 -4.98,400.71 -3.20,403.20 -0.71,404.98 2.49,406.04"/>
    </edge>
    <edge id=":n21_0" function="internal">
        <lane id=":n21_0_0" index="0" speed="13.89" length="20.80" shape="210.40,404.80 189.60,404.80"/>
        <lane id=":n21_0_1" index="1" speed="13.89" length="20.80" shape="210.40,401.60 189.60,401.60"/>
    </edge>
    <edge id=":n21_2" function="internal">
        <lane id=":n21_2_0" index="0" speed="11.87" length="4.98" shape="210.40,401.60 207.88,401.45 205.66,401.01 205.48,400.94"/>
    </edge>
    <edge id=":n21_3" function="internal">
        <lane id=":n21_3_0" index="0" speed="4.69" length="1.32" shape="210.40,401.60 209.77,401.24 209.29,400.89"/>
    </edge>
    <edge id=":n21_12" function="internal">
        <lane id=":n21_12_0" index="0" speed="11.87" length="14.48" shape="205.48,400.94 203.73,400.27 202.10,399.23 200.77,397.90 199.73,396.27 198.99,394.34 198.55,392.12 198.40,389.60"/>
    </edge>
    <edge id=":n21_13" function="internal">
        <lane id=":n21_13_0" index="0" speed="4.69" length="3.40" shape="209.29,400.89 208.98,400.53 208.82,400.18 208.82,399.82 208.98,399.47 209.29,399.11 209.77,398.76 210.40,398.40"/>
    </edge>
    <edge id=":n21_4" function="internal">
        <lane id=":n21_4_0" index="0" speed="8.34" length="9.08" shape="204.80,389.60 204.87,390.78 205.08,391.81 205.42,392.71 205.91,393.47 206.53,394.09 207.29,394.58 208.19,394.92 209.22,395.13 210.40,395.20"/>
        <lane id=":n21_4_1" index="1" speed="10.26" length="14.27" shape="201.60,389.60 201.71,391.45 202.03,393.08 202.58,394.49 203.34,395.68 204.32,396.66 205.51,397.42 206.92,397.97 208.55,398.29 210.40,398.40"/>
    </edge>
    <edge id=":n21_6" function="internal">
        <lane id=":n21_6_0" index="0" speed="11.87" length="19.45" shape="201.60,389.60 201.45,392.12 201.01,394.34 200.27,396.27 199.23,397.90 197.90,399.23 196.27,400.27 194.34,401.01 192.12,401.45 189.60,401.60"/>
    </edge>
    <edge id=":n21_7" function="internal">
        <lane id=":n21_7_0" index="0" speed="4.69" length="2.36" shape="201.60,389.60 201.24,390.23 200.89,390.71 200.53,391.02 200.18,391.18 200.00,391.18"/>
    </edge>
    <edge id=":n21_14" function="internal">
        <lane id=":n21_14_0" index="0" speed="4.69" length="2.36" shape="200.00,391.18 199.82,391.18 199.47,391.02 199.11,390.71 198.76,390.23 198.40,389.60"/>
    </edge>
    <edge id=":n21_8" function="internal">
        <lane id=":n21_8_0" index="0" speed="8.34" length="9.08" shape="189.60,395.20 190.78,395.13 191.81,394.92 192.71,394.58 193.47,394.09 194.09,393.47 194.58,392.71 194.92,391.81 195.13,390.78 195.20,389.60"/>
    </edge>
    <edge id=":n21_9" function="internal">
        <lane id=":n21_9_0" index="0" speed="13.89" length="20.80" shape="189.60,395.20 210.40,395.20"/>
        <lane id=":n21_9_1" index="1" speed="13.89" length="20.80" shape="189.60,398.40 210.40,398.40"/>
    </edge>
    <edge id=":n21_11" function="internal">
        <lane id=":n21_11_0" index="0" speed="4.69" length="1.32" shape="189.60,398.40 190.23,398.76 190.71,399.11"/>
    </edge>
    <edge id=":n21_15" function="internal">
        <lane id=":n21_15_0" index="0" speed="4.69" length="3.40" shape="190.71,399.11 191.02,399.47 191.18,399.82 191.18,400.18 191.02,400.53 190.71,400.89 190.23,401.24 189.60,401.60"/>
    </edge>
    <edge id=":n21_w0" function="walkingarea">
        <lane id=":n21_w0_0" index="0" allow="pedestrian" speed="2.78" length="15.99" width="12.80" shape="210.40,406.40 210.40,393.60 208.18,393.16 207.40,392.60 206.84,391.82 206.51,390.82 206.40,389.60 193.60,389.60 193.16,391.82 192.60,392.60 191.82,393.16 190.82,393.49 189.60,393.60 189.60,406.40"/>
    </edge>
    <edge id=":n22_0" function="internal">
        <lane id=":n22_0_0" index="0" speed="11.49" length="18.16" shape="404.80,393.60 404.66,395.95 404.25,398.02 403.56,399.82 402.59,401.34 401.34,402.59 399.82,403.56 398.02,404.25 395.95,404.66 393.60,404.80"/>
        <lane id=":n22_0_1" index="1" speed="9.82" length="12.97" shape="401.60,393.60 401.50,395.28 401.20,396.76 400.71,398.04 400.02,399.13 399.13,400.02 398.04,400.71 396.76,401.20 395.28,401.50 393.60,401.60"/>
    </edge>
    <edge id=":n22_2" function="internal">
        <lane id=":n22_2_0" index="0" speed="5.00" length="2.59" shape="393.60,395.20 393.94,395.18 394.23,395.12 394.49,395.02 394.71,394.88 394.88,394.71 395.02,394.49 395.12,394.23 395.18,393.94 395.20,393.60"/>
        <lane id=":n22_2_1" index="1" speed="7.79" length="7.78" shape="393.60,398.40 394.61,398.34 395.50,398.16 396.27,397.87 396.92,397.45 397.45,396.92 397.87,396.27 398.16,395.50 398.34,394.61 398.40,393.60"/>
    </edge>
    <edge id=":n22_w0" function="walkingarea">
        <lane id=":n22_w0_0" index="0" allow="pedestrian" speed="2.78" length="9.99" width="12.80" shape="406.40,393.60 393.60,393.60 393.60,406.40 397.51,406.04 400.71,404.98 403.20,403.20 404.98,400.71 406.04,397.51"/>
    </edge>

    <edge id="e_n00_n01" from="n00" to="n01" priority="5" type="urban_pune">
        <lane id="e_n00_n01_0" index="0" speed="13.89" length="183.20" shape="6.40,-4.80 189.60,-4.80"/>
        <lane id="e_n00_n01_1" index="1" speed="13.89" length="183.20" shape="6.40,-1.60 189.60,-1.60"/>
    </edge>
    <edge id="e_n00_n10" from="n00" to="n10" priority="5" type="urban_pune">
        <lane id="e_n00_n10_0" index="0" speed="13.89" length="183.20" shape="4.80,6.40 4.80,189.60"/>
        <lane id="e_n00_n10_1" index="1" speed="13.89" length="183.20" shape="1.60,6.40 1.60,189.60"/>
    </edge>
    <edge id="e_n01_n00" from="n01" to="n00" priority="5" type="urban_pune">
        <lane id="e_n01_n00_0" index="0" speed="13.89" length="183.20" shape="189.60,4.80 6.40,4.80"/>
        <lane id="e_n01_n00_1" index="1" speed="13.89" length="183.20" shape="189.60,1.60 6.40,1.60"/>
    </edge>
    <edge id="e_n01_n02" from="n01" to="n02" priority="5" type="urban_pune">
        <lane id="e_n01_n02_0" index="0" speed="13.89" length="183.20" shape="210.40,-4.80 393.60,-4.80"/>
        <lane id="e_n01_n02_1" index="1" speed="13.89" length="183.20" shape="210.40,-1.60 393.60,-1.60"/>
    </edge>
    <edge id="e_n01_n11" from="n01" to="n11" priority="5" type="urban_pune">
        <lane id="e_n01_n11_0" index="0" speed="13.89" length="179.20" shape="204.80,10.40 204.80,189.60"/>
        <lane id="e_n01_n11_1" index="1" speed="13.89" length="179.20" shape="201.60,10.40 201.60,189.60"/>
    </edge>
    <edge id="e_n02_n01" from="n02" to="n01" priority="5" type="urban_pune">
        <lane id="e_n02_n01_0" index="0" speed="13.89" length="183.20" shape="393.60,4.80 210.40,4.80"/>
        <lane id="e_n02_n01_1" index="1" speed="13.89" length="183.20" shape="393.60,1.60 210.40,1.60"/>
    </edge>
    <edge id="e_n02_n12" from="n02" to="n12" priority="5" type="urban_pune">
        <lane id="e_n02_n12_0" index="0" speed="13.89" length="183.20" shape="404.80,6.40 404.80,189.60"/>
        <lane id="e_n02_n12_1" index="1" speed="13.89" length="183.20" shape="401.60,6.40 401.60,189.60"/>
    </edge>
    <edge id="e_n10_n00" from="n10" to="n00" priority="5" type="urban_pune">
        <lane id="e_n10_n00_0" index="0" speed="13.89" length="183.20" shape="-4.80,189.60 -4.80,6.40"/>
        <lane id="e_n10_n00_1" index="1" speed="13.89" length="183.20" shape="-1.60,189.60 -1.60,6.40"/>
    </edge>
    <edge id="e_n10_n11" from="n10" to="n11" priority="5" type="urban_pune">
        <lane id="e_n10_n11_0" index="0" speed="13.89" length="179.20" shape="10.40,195.20 189.60,195.20"/>
        <lane id="e_n10_n11_1" index="1" speed="13.89" length="179.20" shape="10.40,198.40 189.60,198.40"/>
    </edge>
    <edge id="e_n10_n20" from="n10" to="n20" priority="5" type="urban_pune">
        <lane id="e_n10_n20_0" index="0" speed="13.89" length="183.20" shape="4.80,210.40 4.80,393.60"/>
        <lane id="e_n10_n20_1" index="1" speed="13.89" length="183.20" shape="1.60,210.40 1.60,393.60"/>
    </edge>
    <edge id="e_n11_n01" from="n11" to="n01" priority="5" type="urban_pune">
        <lane id="e_n11_n01_0" index="0" speed="13.89" length="179.20" shape="195.20,189.60 195.20,10.40"/>
        <lane id="e_n11_n01_1" index="1" speed="13.89" length="179.20" shape="198.40,189.60 198.40,10.40"/>
    </edge>